1248
SiF6 2x2x3
C   -13.649   7.413  -8.092 
C   -13.649   7.413   0.000 
C   -13.649   7.413   8.092 
C     0.000  -6.236  -8.092 
C     0.000  -6.236   0.000 
C     0.000  -6.236   8.092 
C     0.000   7.413  -8.092 
C     0.000   7.413   0.000 
C     0.000   7.413   8.092 
C    -6.824 -13.061 -12.138 
C    -6.824 -13.061  -4.046 
C    -6.824 -13.061   4.046 
C    -6.824   0.588 -12.138 
C    -6.824   0.588  -4.046 
C    -6.824   0.588   4.046 
C     6.825 -13.061 -12.138 
C     6.825 -13.061  -4.046 
C     6.825 -13.061   4.046 
C     6.825   0.588 -12.138 
C     6.825   0.588  -4.046 
C     6.825   0.588   4.046 
C    -6.236 -13.649  -8.092 
C    -6.236 -13.649   0.000 
C    -6.236 -13.649   8.092 
C    -6.236   0.000  -8.092 
C    -6.236   0.000   0.000 
C    -6.236   0.000   8.092 
C     7.413 -13.649  -8.092 
C     7.413 -13.649   0.000 
C     7.413 -13.649   8.092 
C     7.413   0.000  -8.092 
C     7.413   0.000   0.000 
C     7.413   0.000   8.092 
C   -13.061  -6.824 -12.138 
C   -13.061  -6.824  -4.046 
C   -13.061  -6.824   4.046 
C   -13.061   6.825 -12.138 
C   -13.061   6.825  -4.046 
C   -13.061   6.825   4.046 
C     0.588  -6.824 -12.138 
C     0.588  -6.824  -4.046 
C     0.588  -6.824   4.046 
C     0.588   6.825 -12.138 
C     0.588   6.825  -4.046 
C     0.588   6.825   4.046 
C    -7.413 -13.649  -8.092 
C    -7.413 -13.649   0.000 
C    -7.413 -13.649   8.092 
C    -7.413   0.000  -8.092 
C    -7.413   0.000   0.000 
C    -7.413   0.000   8.092 
C     6.236 -13.649  -8.092 
C     6.236 -13.649   0.000 
C     6.236 -13.649   8.092 
C     6.236   0.000  -8.092 
C     6.236   0.000   0.000 
C     6.236   0.000   8.092 
C    -0.588  -6.824 -12.138 
C    -0.588  -6.824  -4.046 
C    -0.588  -6.824   4.046 
C    -0.588   6.825 -12.138 
C    -0.588   6.825  -4.046 
C    -0.588   6.825   4.046 
C    13.061  -6.824 -12.138 
C    13.061  -6.824  -4.046 
C    13.061  -6.824   4.046 
C    13.061   6.825 -12.138 
C    13.061   6.825  -4.046 
C    13.061   6.825   4.046 
C   -13.649  -7.413  -8.092 
C   -13.649  -7.413   0.000 
C   -13.649  -7.413   8.092 
C   -13.649   6.236  -8.092 
C   -13.649   6.236   0.000 
C   -13.649   6.236   8.092 
C     0.000  -7.413  -8.092 
C     0.000  -7.413   0.000 
C     0.000  -7.413   8.092 
C     0.000   6.236  -8.092 
C     0.000   6.236   0.000 
C     0.000   6.236   8.092 
C    -6.824  -0.588 -12.138 
C    -6.824  -0.588  -4.046 
C    -6.824  -0.588   4.046 
C    -6.824  13.061 -12.138 
C    -6.824  13.061  -4.046 
C    -6.824  13.061   4.046 
C     6.825  -0.588 -12.138 
C     6.825  -0.588  -4.046 
C     6.825  -0.588   4.046 
C     6.825  13.061 -12.138 
C     6.825  13.061  -4.046 
C     6.825  13.061   4.046 
C   -13.649  -6.236  -8.092 
C   -13.649  -6.236   0.000 
C   -13.649  -6.236   8.092 
F   -12.014 -13.270 -12.138 
F   -12.014 -13.270  -4.046 
F   -12.014 -13.270   4.046 
F   -12.014   0.379 -12.138 
F   -12.014   0.379  -4.046 
F   -12.014   0.379   4.046 
F     1.635 -13.270 -12.138 
F     1.635 -13.270  -4.046 
F     1.635 -13.270   4.046 
F     1.635   0.379 -12.138 
F     1.635   0.379  -4.046 
F     1.635   0.379   4.046 
F    -5.189  -6.445  -8.092 
F    -5.189  -6.445   0.000 
F    -5.189  -6.445   8.092 
F    -5.189   7.204  -8.092 
F    -5.189   7.204   0.000 
F    -5.189   7.204   8.092 
F     8.460  -6.445  -8.092 
F     8.460  -6.445   0.000 
F     8.460  -6.445   8.092 
F     8.460   7.204  -8.092 
F     8.460   7.204   0.000 
F     8.460   7.204   8.092 
F   -15.284 -14.028 -12.138 
F   -15.284 -14.028  -4.046 
F   -15.284 -14.028   4.046 
F   -15.284  -0.379 -12.138 
F   -15.284  -0.379  -4.046 
F   -15.284  -0.379   4.046 
F    -1.635 -14.028 -12.138 
F    -1.635 -14.028  -4.046 
F    -1.635 -14.028   4.046 
F    -1.635  -0.379 -12.138 
F    -1.635  -0.379  -4.046 
F    -1.635  -0.379   4.046 
F    -8.460  -7.204  -8.092 
F    -8.460  -7.204   0.000 
F    -8.460  -7.204   8.092 
F    -8.460   6.445  -8.092 
F    -8.460   6.445   0.000 
F    -8.460   6.445   8.092 
F     5.189  -7.204  -8.092 
F     5.189  -7.204   0.000 
F     5.189  -7.204   8.092 
F     5.189   6.445  -8.092 
F     5.189   6.445   0.000 
F     5.189   6.445   8.092 
F   -14.028 -12.014 -12.138 
F   -14.028 -12.014  -4.046 
F   -14.028 -12.014   4.046 
F   -14.028   1.635 -12.138 
F   -14.028   1.635  -4.046 
F   -14.028   1.635   4.046 
F    -0.379 -12.014 -12.138 
F    -0.379 -12.014  -4.046 
F    -0.379 -12.014   4.046 
F    -0.379   1.635 -12.138 
F    -0.379   1.635  -4.046 
F    -0.379   1.635   4.046 
F    -7.204  -5.189  -8.092 
F    -7.204  -5.189   0.000 
F    -7.204  -5.189   8.092 
F    -7.204   8.460  -8.092 
F    -7.204   8.460   0.000 
F    -7.204   8.460   8.092 
F     6.445  -5.189  -8.092 
F     6.445  -5.189   0.000 
F     6.445  -5.189   8.092 
F     6.445   8.460  -8.092 
F     6.445   8.460   0.000 
F     6.445   8.460   8.092 
F   -13.270 -15.284 -12.138 
F   -13.270 -15.284  -4.046 
F   -13.270 -15.284   4.046 
F   -13.270  -1.635 -12.138 
F   -13.270  -1.635  -4.046 
F   -13.270  -1.635   4.046 
F     0.379 -15.284 -12.138 
F     0.379 -15.284  -4.046 
F     0.379 -15.284   4.046 
F     0.379  -1.635 -12.138 
F     0.379  -1.635  -4.046 
F     0.379  -1.635   4.046 
F    -6.445  -8.460  -8.092 
F    -6.445  -8.460   0.000 
F    -6.445  -8.460   8.092 
F    -6.445   5.189  -8.092 
F    -6.445   5.189   0.000 
F    -6.445   5.189   8.092 
F     7.204  -8.460  -8.092 
F     7.204  -8.460   0.000 
F     7.204  -8.460   8.092 
F     7.204   5.189  -8.092 
F     7.204   5.189   0.000 
F     7.204   5.189   8.092 
C   -13.649  -2.700  -9.206
C   -13.649  -2.700  -1.114
C   -13.649  -2.700   6.979
C   -13.649  10.949  -9.206
C   -13.649  10.949  -1.114
C   -13.649  10.949   6.979
C     0.000  -2.700  -9.206
C     0.000  -2.700  -1.114
C     0.000  -2.700   6.979
C     0.000  10.949  -9.206
C     0.000  10.949  -1.114
C     0.000  10.949   6.979
C    -6.824  -9.524 -13.252
C    -6.824  -9.524  -5.159
C    -6.824  -9.524   2.932
C    -6.824   4.125 -13.252
C    -6.824   4.125  -5.159
C    -6.824   4.125   2.932
C     6.825  -9.524 -13.252
C     6.825  -9.524  -5.159
C     6.825  -9.524   2.932
C     6.825   4.125 -13.252
C     6.825   4.125  -5.159
C     6.825   4.125   2.932
C    -2.700 -13.649  -9.206
C    -2.700 -13.649  -1.114
C    -2.700 -13.649   6.979
C    -2.700   0.000  -9.206
C    -2.700   0.000  -1.114
C    -2.700   0.000   6.979
C    10.949 -13.649  -9.206
C    10.949 -13.649  -1.114
C    10.949 -13.649   6.979
C    10.949   0.000  -9.206
C    10.949   0.000  -1.114
C    10.949   0.000   6.979
C   -13.649 -10.949  -9.206
C    -9.524  -6.824 -13.252
C    -9.524  -6.824  -5.159
C    -9.524  -6.824   2.932
C    -9.524   6.825 -13.252
C    -9.524   6.825  -5.159
C   -13.649 -10.949  -1.114
C    -9.524   6.825   2.932
C     4.125  -6.824 -13.252
C     4.125  -6.824  -5.159
C     4.125  -6.824   2.932
C     4.125   6.825 -13.252
C     4.125   6.825  -5.159
C     4.125   6.825   2.932
C   -13.649 -10.949   6.979
C   -13.649   2.700  -9.206
C   -13.649   2.700  -1.114
C   -13.649   2.700   6.979
C   -10.949 -13.649  -9.206
C   -10.949 -13.649  -1.114
C   -10.949 -13.649   6.979
C   -10.949   0.000  -9.206
C   -10.949   0.000  -1.114
C   -10.949   0.000   6.979
C     2.700 -13.649  -9.206
C     0.000 -10.949  -9.206
C     2.700 -13.649  -1.114
C     2.700 -13.649   6.979
C     2.700   0.000  -9.206
C     2.700   0.000  -1.114
C     2.700   0.000   6.979
C     0.000 -10.949  -1.114
C     0.000 -10.949   6.979
C     0.000   2.700  -9.206
C     0.000   2.700  -1.114
C    -4.125  -6.824 -13.252
C    -4.125  -6.824  -5.159
C    -4.125  -6.824   2.932
C    -4.125   6.825 -13.252
C    -4.125   6.825  -5.159
C    -4.125   6.825   2.932
C     9.524  -6.824 -13.252
C     9.524  -6.824  -5.159
C     9.524  -6.824   2.932
C     0.000   2.700   6.979
C     9.524   6.825 -13.252
C     9.524   6.825  -5.159
C     9.524   6.825   2.932
C   -13.649 -10.949  -6.979
C   -13.649 -10.949   1.114
C   -13.649 -10.949   9.205
C   -13.649   2.700  -6.979
C   -13.649   2.700   1.114
C   -13.649   2.700   9.205
C     0.000 -10.949  -6.979
C     0.000 -10.949   1.114
C     0.000 -10.949   9.205
C     0.000   2.700  -6.979
C     0.000   2.700   1.114
C     0.000   2.700   9.205
C    -6.824  -4.125 -11.024
C    -6.824  -4.125  -2.932
C    -6.824  -4.125   5.159
C    -6.824   9.524 -11.024
C    -6.824   9.524  -2.932
C    -6.824   9.524   5.159
C     6.825  -4.125 -11.024
C     6.825  -4.125  -2.932
C     6.825  -4.125   5.159
C     6.825   9.524 -11.024
C     6.825   9.524  -2.932
C     6.825   9.524   5.159
C   -13.649  -2.700  -6.979
C   -13.649  -2.700   1.114
C   -13.649  -2.700   9.205
C   -13.649  10.949  -6.979
C   -13.649  10.949   1.114
C   -13.649  10.949   9.205
C     0.000  -2.700  -6.979
C     0.000  -2.700   1.114
C     0.000  -2.700   9.205
C     0.000  10.949  -6.979
C     0.000  10.949   1.114
C     0.000  10.949   9.205
C    -6.824  -9.524 -11.024
C    -6.824  -9.524  -2.932
C    -6.824  -9.524   5.159
C    -6.824   4.125 -11.024
C    -6.824   4.125  -2.932
C    -6.824   4.125   5.159
C     6.825  -9.524 -11.024
C     6.825  -9.524  -2.932
C     6.825  -9.524   5.159
C     6.825   4.125 -11.024
C     6.825   4.125  -2.932
C     6.825   4.125   5.159
C   -10.949 -13.649  -6.979
C   -10.949 -13.649   1.114
C   -10.949 -13.649   9.205
C   -10.949   0.000  -6.979
C   -10.949   0.000   1.114
C   -10.949   0.000   9.205
C     2.700 -13.649  -6.979
C     2.700 -13.649   1.114
C     2.700 -13.649   9.205
C     2.700   0.000  -6.979
C     2.700   0.000   1.114
C     2.700   0.000   9.205
C    -4.125  -6.824 -11.024
C    -4.125  -6.824  -2.932
C    -4.125  -6.824   5.159
C    -4.125   6.825 -11.024
C    -4.125   6.825  -2.932
C    -4.125   6.825   5.159
C     9.524  -6.824 -11.024
C     9.524  -6.824  -2.932
C     9.524  -6.824   5.159
C     9.524   6.825 -11.024
C     9.524   6.825  -2.932
C     9.524   6.825   5.159
C    -2.700 -13.649  -6.979
C    -2.700 -13.649   1.114
C    -2.700 -13.649   9.205
C    -2.700   0.000  -6.979
C    -2.700   0.000   1.114
C    -2.700   0.000   9.205
C    10.949 -13.649  -6.979
C    10.949 -13.649   1.114
C    10.949 -13.649   9.205
C    10.949   0.000  -6.979
C    10.949   0.000   1.114
C    10.949   0.000   9.205
C    -6.824  -4.125 -13.252
C    -9.524  -6.824 -11.024
C    -9.524  -6.824  -2.932
C    -9.524  -6.824   5.159
C    -9.524   6.825 -11.024
C    -9.524   6.825  -2.932
C    -6.824  -4.125  -5.159
C    -9.524   6.825   5.159
C     4.125  -6.824 -11.024
C     4.125  -6.824  -2.932
C     4.125  -6.824   5.159
C     4.125   6.825 -11.024
C     4.125   6.825  -2.932
C     4.125   6.825   5.159
C    -6.824  -4.125   2.932
C    -6.824   9.524 -13.252
C    -6.824   9.524  -5.159
C    -6.824   9.524   2.932
C     6.825  -4.125 -13.252
C     6.825  -4.125  -5.159
C     6.825  -4.125   2.932
C     6.825   9.524 -13.252
C     6.825   9.524  -5.159
C     6.825   9.524   2.932
H   -13.649  -4.545 -10.108
H   -13.649  -4.545  -2.017
H   -13.649  -4.545   6.076
H   -13.649   9.104 -10.108
H   -13.649   9.104  -2.017
H   -13.649   9.104   6.076
H     0.000  -4.545 -10.108
H     0.000  -4.545  -2.017
H     0.000  -4.545   6.076
H     0.000   9.104 -10.108
H     0.000   9.104  -2.017
H     0.000   9.104   6.076
H   -13.649  -9.104 -10.108
H   -13.649  -9.104  -2.017
H    -6.824 -11.370 -14.155
H    -6.824 -11.370  -6.062
H    -6.824 -11.370   2.030
H   -13.649  -9.104   6.076
H    -6.824   2.279 -14.155
H    -6.824   2.279  -6.062
H    -6.824   2.279   2.030
H     6.825 -11.370 -14.155
H     6.825 -11.370  -6.062
H     6.825 -11.370   2.030
H     6.825   2.279 -14.155
H     6.825   2.279  -6.062
H     6.825   2.279   2.030
H   -13.649   4.545 -10.108
H   -13.649   4.545  -2.017
H   -13.649   4.545   6.076
H     0.000  -9.104 -10.108
H    -4.545 -13.649 -10.108
H    -4.545 -13.649  -2.017
H    -4.545 -13.649   6.076
H    -4.545   0.000 -10.108
H    -4.545   0.000  -2.017
H     0.000  -9.104  -2.017
H    -4.545   0.000   6.076
H     9.104 -13.649 -10.108
H     9.104 -13.649  -2.017
H     9.104 -13.649   6.076
H     9.104   0.000 -10.108
H     9.104   0.000  -2.017
H     9.104   0.000   6.076
H     0.000  -9.104   6.076
H     0.000   4.545 -10.108
H     0.000   4.545  -2.017
H     0.000   4.545   6.076
H   -11.370  -6.824 -14.155
H   -11.370  -6.824  -6.062
H   -11.370  -6.824   2.030
H   -11.370   6.825 -14.155
H   -11.370   6.825  -6.062
H   -11.370   6.825   2.030
H     2.279  -6.824 -14.155
H     2.279  -6.824  -6.062
H     2.279  -6.824   2.030
H     2.279   6.825 -14.155
H     2.279   6.825  -6.062
H     2.279   6.825   2.030
H    -9.104 -13.649 -10.108
H    -9.104 -13.649  -2.017
H    -9.104 -13.649   6.076
H    -9.104   0.000 -10.108
H    -9.104   0.000  -2.017
H    -9.104   0.000   6.076
H     4.545 -13.649 -10.108
H     4.545 -13.649  -2.017
H     4.545 -13.649   6.076
H     4.545   0.000 -10.108
H     4.545   0.000  -2.017
H     4.545   0.000   6.076
H    -2.279  -6.824 -14.155
H    -2.279  -6.824  -6.062
H    -2.279  -6.824   2.030
H    -2.279   6.825 -14.155
H    -2.279   6.825  -6.062
H    -2.279   6.825   2.030
H    11.370  -6.824 -14.155
H    11.370  -6.824  -6.062
H    11.370  -6.824   2.030
H    11.370   6.825 -14.155
H    11.370   6.825  -6.062
H    11.370   6.825   2.030
H   -13.649  -9.104  -6.076
H   -13.649  -9.104   2.017
H   -13.649  -9.104  10.109
H   -13.649   4.545  -6.076
H   -13.649   4.545   2.017
H   -13.649   4.545  10.109
H     0.000  -9.104  -6.076
H     0.000  -9.104   2.017
H     0.000  -9.104  10.109
H     0.000   4.545  -6.076
H     0.000   4.545   2.017
H     0.000   4.545  10.109
H    -6.824  -2.279 -10.121
H    -6.824  -2.279  -2.030
H    -6.824  -2.279   6.062
H    -6.824  11.370 -10.121
H    -6.824  11.370  -2.030
H    -6.824  11.370   6.062
H     6.825  -2.279 -10.121
H     6.825  -2.279  -2.030
H     6.825  -2.279   6.062
H     6.825  11.370 -10.121
H     6.825  11.370  -2.030
H     6.825  11.370   6.062
H   -13.649  -4.545  -6.076
H   -13.649  -4.545   2.017
H   -13.649  -4.545  10.109
H   -13.649   9.104  -6.076
H   -13.649   9.104   2.017
H   -13.649   9.104  10.109
H     0.000  -4.545  -6.076
H     0.000  -4.545   2.017
H     0.000  -4.545  10.109
H     0.000   9.104  -6.076
H     0.000   9.104   2.017
H     0.000   9.104  10.109
H    -6.824 -11.370 -10.121
H    -6.824 -11.370  -2.030
H    -6.824 -11.370   6.062
H    -6.824   2.279 -10.121
H    -6.824   2.279  -2.030
H    -6.824   2.279   6.062
H     6.825 -11.370 -10.121
H     6.825 -11.370  -2.030
H     6.825 -11.370   6.062
H     6.825   2.279 -10.121
H     6.825   2.279  -2.030
H     6.825   2.279   6.062
H    -9.104 -13.649  -6.076
H    -9.104 -13.649   2.017
H    -9.104 -13.649  10.109
H    -9.104   0.000  -6.076
H    -9.104   0.000   2.017
H    -9.104   0.000  10.109
H     4.545 -13.649  -6.076
H     4.545 -13.649   2.017
H     4.545 -13.649  10.109
H     4.545   0.000  -6.076
H     4.545   0.000   2.017
H     4.545   0.000  10.109
H    -6.824  -2.279 -14.155
H    -6.824  -2.279  -6.062
H    -2.279  -6.824 -10.121
H    -2.279  -6.824  -2.030
H    -2.279  -6.824   6.062
H    -6.824  -2.279   2.030
H    -2.279   6.825 -10.121
H    -2.279   6.825  -2.030
H    -2.279   6.825   6.062
H    11.370  -6.824 -10.121
H    11.370  -6.824  -2.030
H    11.370  -6.824   6.062
H    11.370   6.825 -10.121
H    11.370   6.825  -2.030
H    11.370   6.825   6.062
H    -6.824  11.370 -14.155
H    -6.824  11.370  -6.062
H    -6.824  11.370   2.030
H     6.825  -2.279 -14.155
H    -4.545 -13.649  -6.076
H    -4.545 -13.649   2.017
H    -4.545 -13.649  10.109
H    -4.545   0.000  -6.076
H    -4.545   0.000   2.017
H     6.825  -2.279  -6.062
H    -4.545   0.000  10.109
H     9.104 -13.649  -6.076
H     9.104 -13.649   2.017
H     9.104 -13.649  10.109
H     9.104   0.000  -6.076
H     9.104   0.000   2.017
H     9.104   0.000  10.109
H     6.825  -2.279   2.030
H     6.825  11.370 -14.155
H     6.825  11.370  -6.062
H     6.825  11.370   2.030
H   -11.370  -6.824 -10.121
H   -11.370  -6.824  -2.030
H   -11.370  -6.824   6.062
H   -11.370   6.825 -10.121
H   -11.370   6.825  -2.030
H   -11.370   6.825   6.062
H     2.279  -6.824 -10.121
H     2.279  -6.824  -2.030
H     2.279  -6.824   6.062
H     2.279   6.825 -10.121
H     2.279   6.825  -2.030
H     2.279   6.825   6.062
C   -13.649   9.553  -9.271
C   -13.649   9.553  -1.179
C   -13.649   9.553   6.913
C     0.000  -4.096  -9.271
C     0.000  -4.096  -1.179
C     0.000  -4.096   6.913
C     0.000   9.553  -9.271
C     0.000   9.553  -1.179
C     0.000   9.553   6.913
C     0.000   4.096  -9.271
C     0.000   4.096  -1.179
C     0.000   4.096   6.913
C    -6.824 -10.921 -13.317
C    -6.824 -10.921  -5.225
C    -6.824 -10.921   2.867
C    -6.824   2.728 -13.317
C    -6.824   2.728  -5.225
C    -6.824   2.728   2.867
C     6.825 -10.921 -13.317
C     6.825 -10.921  -5.225
C     6.825 -10.921   2.867
C     6.825   2.728 -13.317
C     6.825   2.728  -5.225
C     6.825   2.728   2.867
C    -4.096 -13.649  -9.271
C    -4.096 -13.649  -1.179
C    -4.096 -13.649   6.913
C    -4.096   0.000  -9.271
C    -4.096   0.000  -1.179
C    -4.096   0.000   6.913
C     9.553 -13.649  -9.271
C   -13.649  -9.553  -9.271
C     9.553 -13.649  -1.179
C     9.553 -13.649   6.913
C     9.553   0.000  -9.271
C     9.553   0.000  -1.179
C     9.553   0.000   6.913
C   -10.921  -6.824 -13.317
C   -10.921  -6.824  -5.225
C   -10.921  -6.824   2.867
C   -10.921   6.825 -13.317
C   -10.921   6.825  -5.225
C   -10.921   6.825   2.867
C     2.728  -6.824 -13.317
C     2.728  -6.824  -5.225
C     2.728  -6.824   2.867
C     2.728   6.825 -13.317
C     2.728   6.825  -5.225
C     2.728   6.825   2.867
C    -9.553 -13.649  -9.271
C    -9.553 -13.649  -1.179
C    -9.553 -13.649   6.913
C    -9.553   0.000  -9.271
C    -9.553   0.000  -1.179
C    -9.553   0.000   6.913
C     4.096 -13.649  -9.271
C     4.096 -13.649  -1.179
C     4.096 -13.649   6.913
C     4.096   0.000  -9.271
C     4.096   0.000  -1.179
C   -13.649  -9.553  -1.179
C     4.096   0.000   6.913
C    -2.728  -6.824 -13.317
C    -2.728  -6.824  -5.225
C    -2.728  -6.824   2.867
C    -2.728   6.825 -13.317
C    -2.728   6.825  -5.225
C    -2.728   6.825   2.867
C    10.921  -6.824 -13.317
C    10.921  -6.824  -5.225
C    10.921  -6.824   2.867
C    10.921   6.825 -13.317
C    10.921   6.825  -5.225
C    10.921   6.825   2.867
C   -13.649  -9.553  -6.913
C   -13.649  -9.553   1.179
C   -13.649  -9.553   9.271
C   -13.649   4.096  -6.913
C   -13.649   4.096   1.179
C   -13.649   4.096   9.271
C     0.000  -9.553  -6.913
C     0.000  -9.553   1.179
C     0.000  -9.553   9.271
C     0.000   4.096  -6.913
C     0.000   4.096   1.179
C     0.000   4.096   9.271
C   -13.649  -9.553   6.913
C    -6.824  -2.728 -10.959
C    -6.824  -2.728  -2.867
C    -6.824  -2.728   5.225
C    -6.824  10.921 -10.959
C    -6.824  10.921  -2.867
C    -6.824  10.921   5.225
C     6.825  -2.728 -10.959
C     6.825  -2.728  -2.867
C     6.825  -2.728   5.225
C     6.825  10.921 -10.959
C     6.825  10.921  -2.867
C     6.825  10.921   5.225
C   -13.649  -4.096  -6.913
C   -13.649  -4.096   1.179
C   -13.649  -4.096   9.271
C   -13.649   9.553  -6.913
C   -13.649   9.553   1.179
C   -13.649   9.553   9.271
C     0.000  -4.096  -6.913
C     0.000  -4.096   1.179
C     0.000  -4.096   9.271
C     0.000   9.553  -6.913
C     0.000   9.553   1.179
C     0.000   9.553   9.271
C    -6.824  -2.728 -13.317
C   -13.649   4.096  -9.271
C    -6.824  -2.728  -5.225
C    -6.824  -2.728   2.867
C    -6.824 -10.921 -10.959
C    -6.824  10.921 -13.317
C    -6.824 -10.921  -2.867
C    -6.824 -10.921   5.225
C    -6.824   2.728 -10.959
C    -6.824   2.728  -2.867
C    -6.824   2.728   5.225
C     6.825 -10.921 -10.959
C     6.825 -10.921  -2.867
C     6.825 -10.921   5.225
C     6.825   2.728 -10.959
C     6.825   2.728  -2.867
C    -6.824  10.921  -5.225
C     6.825   2.728   5.225
C    -6.824  10.921   2.867
C     6.825  -2.728 -13.317
C     6.825  -2.728  -5.225
C    -9.553 -13.649  -6.913
C    -9.553 -13.649   1.179
C    -9.553 -13.649   9.271
C     6.825  -2.728   2.867
C    -9.553   0.000  -6.913
C    -9.553   0.000   1.179
C    -9.553   0.000   9.271
C     4.096 -13.649  -6.913
C     4.096 -13.649   1.179
C     4.096 -13.649   9.271
C     4.096   0.000  -6.913
C     4.096   0.000   1.179
C     4.096   0.000   9.271
C     6.825  10.921 -13.317
C     6.825  10.921  -5.225
C   -13.649   4.096  -1.179
C     6.825  10.921   2.867
C    -2.728  -6.824 -10.959
C    -2.728  -6.824  -2.867
C    -2.728  -6.824   5.225
C    -2.728   6.825 -10.959
C    -2.728   6.825  -2.867
C    -2.728   6.825   5.225
C    10.921  -6.824 -10.959
C    10.921  -6.824  -2.867
C    10.921  -6.824   5.225
C    10.921   6.825 -10.959
C    10.921   6.825  -2.867
C    10.921   6.825   5.225
C    -4.096 -13.649  -6.913
C    -4.096 -13.649   1.179
C    -4.096 -13.649   9.271
C    -4.096   0.000  -6.913
C    -4.096   0.000   1.179
C    -4.096   0.000   9.271
C     9.553 -13.649  -6.913
C     9.553 -13.649   1.179
C     9.553 -13.649   9.271
C     9.553   0.000  -6.913
C     9.553   0.000   1.179
C     9.553   0.000   9.271
C   -13.649   4.096   6.913
C   -10.921  -6.824 -10.959
C   -10.921  -6.824  -2.867
C   -10.921  -6.824   5.225
C   -10.921   6.825 -10.959
C   -10.921   6.825  -2.867
C   -10.921   6.825   5.225
C     2.728  -6.824 -10.959
C     2.728  -6.824  -2.867
C     2.728  -6.824   5.225
C     2.728   6.825 -10.959
C     2.728   6.825  -2.867
C     2.728   6.825   5.225
C     0.000  -9.553  -9.271
C     0.000  -9.553  -1.179
C   -13.649  -4.096  -9.271
C   -13.649  -4.096  -1.179
C   -13.649  -4.096   6.913
C     0.000  -9.553   6.913
Cu   -13.649 -13.649  -8.092
Cu   -13.649 -13.649   0.000
Cu   -13.649 -13.649   8.092
Cu   -13.649   0.000  -8.092
Cu   -13.649   0.000   0.000
Cu   -13.649   0.000   8.092
Cu     0.000 -13.649  -8.092
Cu     0.000 -13.649   0.000
Cu     0.000 -13.649   8.092
Cu     0.000   0.000  -8.092
Cu     0.000   0.000   0.000
Cu     0.000   0.000   8.092
Cu    -6.824  -6.824 -12.138
Cu    -6.824  -6.824  -4.046
Cu    -6.824  -6.824   4.046
Cu    -6.824   6.825 -12.138
Cu    -6.824   6.825  -4.046
Cu    -6.824   6.825   4.046
Cu     6.825  -6.824 -12.138
Cu     6.825  -6.824  -4.046
Cu     6.825  -6.824   4.046
Cu     6.825   6.825 -12.138
Cu     6.825   6.825  -4.046
Cu     6.825   6.825   4.046
C    -13.649  -4.803  -8.092
C    -13.649  -4.803   0.000
C    -13.649  -4.803   8.092
C    -13.649   8.846  -8.092
C    -13.649   8.846   0.000
C    -13.649   8.846   8.092
C      0.000  -4.803  -8.092
C      0.000  -4.803   0.000
C      0.000  -4.803   8.092
C      0.000   8.846  -8.092
C      0.000   8.846   0.000
C      0.000   8.846   8.092
C     -6.824 -11.628 -12.138
C     -6.824 -11.628  -4.046
C     -6.824 -11.628   4.046
C     -6.824   2.021 -12.138
C     -6.824   2.021  -4.046
C     -6.824   2.021   4.046
C      6.825 -11.628 -12.138
C      6.825 -11.628  -4.046
C      6.825 -11.628   4.046
C      6.825   2.021 -12.138
C      6.825   2.021  -4.046
C      6.825   2.021   4.046
C     -4.803 -13.649  -8.092
C     -4.803 -13.649   0.000
C     -4.803 -13.649   8.092
C     -4.803   0.000  -8.092
C     -4.803   0.000   0.000
C     -4.803   0.000   8.092
C      8.846 -13.649  -8.092
C      8.846 -13.649   0.000
C      8.846 -13.649   8.092
C      8.846   0.000  -8.092
C      8.846   0.000   0.000
C      8.846   0.000   8.092
C    -11.628  -6.824 -12.138
C    -11.628  -6.824  -4.046
C    -11.628  -6.824   4.046
C    -11.628   6.825 -12.138
C    -11.628   6.825  -4.046
C    -11.628   6.825   4.046
C      2.021  -6.824 -12.138
C      2.021  -6.824  -4.046
C      2.021  -6.824   4.046
C      2.021   6.825 -12.138
C      2.021   6.825  -4.046
C      2.021   6.825   4.046
C     -8.846 -13.649  -8.092
C     -8.846 -13.649   0.000
C     -8.846 -13.649   8.092
C     -8.846   0.000  -8.092
C     -8.846   0.000   0.000
C     -8.846   0.000   8.092
C      4.803 -13.649  -8.092
C      4.803 -13.649   0.000
C      4.803 -13.649   8.092
C      4.803   0.000  -8.092
C      4.803   0.000   0.000
C      4.803   0.000   8.092
C     -2.021  -6.824 -12.138
C     -2.021  -6.824  -4.046
C     -2.021  -6.824   4.046
C     -2.021   6.825 -12.138
C     -2.021   6.825  -4.046
C     -2.021   6.825   4.046
C     11.628  -6.824 -12.138
C     11.628  -6.824  -4.046
C     11.628  -6.824   4.046
C     11.628   6.825 -12.138
C     11.628   6.825  -4.046
C     11.628   6.825   4.046
C    -13.649  -8.846  -8.092
C    -13.649  -8.846   0.000
C    -13.649  -8.846   8.092
C    -13.649   4.803  -8.092
C    -13.649   4.803   0.000
C    -13.649   4.803   8.092
C      0.000  -8.846  -8.092
C      0.000  -8.846   0.000
C      0.000  -8.846   8.092
C      0.000   4.803  -8.092
C      0.000   4.803   0.000
C      0.000   4.803   8.092
C     -6.824  -2.021 -12.138
C     -6.824  -2.021  -4.046
C     -6.824  -2.021   4.046
C     -6.824  11.628 -12.138
C     -6.824  11.628  -4.046
C     -6.824  11.628   4.046
C      6.825  -2.021 -12.138
C      6.825  -2.021  -4.046
C      6.825  -2.021   4.046
C      6.825  11.628 -12.138
C      6.825  11.628  -4.046
C      6.825  11.628   4.046
F    -13.649 -13.649  -5.739
F    -13.649 -13.649   2.353
F    -13.649 -13.649  10.445
F    -13.649   0.000  -5.739
F    -13.649   0.000   2.353
F    -13.649   0.000  10.445
F      0.000 -13.649  -5.739
F      0.000 -13.649   2.353
F      0.000 -13.649  10.445
F      0.000   0.000  -5.739
F      0.000   0.000   2.353
F      0.000   0.000  10.445
F     -6.824  -6.824  -9.785
F     -6.824  -6.824  -1.693
F     -6.824  -6.824   6.399
F     -6.824   6.825  -9.785
F     -6.824   6.825  -1.693
F     -6.824   6.825   6.399
F      6.825  -6.824  -9.785
F      6.825  -6.824  -1.693
F      6.825  -6.824   6.399
F      6.825   6.825  -9.785
F      6.825   6.825  -1.693
F      6.825   6.825   6.399
F    -13.649 -13.649 -10.445
F    -13.649 -13.649  -2.353
F    -13.649 -13.649   5.739
F    -13.649   0.000 -10.445
F    -13.649   0.000  -2.353
F    -13.649   0.000   5.739
F      0.000 -13.649 -10.445
F      0.000 -13.649  -2.353
F      0.000 -13.649   5.739
F      0.000   0.000 -10.445
F      0.000   0.000  -2.353
F      0.000   0.000   5.739
F     -6.824  -6.824 -14.491
F     -6.824  -6.824  -6.399
F     -6.824  -6.824   1.693
F     -6.824   6.825 -14.491
F     -6.824   6.825  -6.399
F     -6.824   6.825   1.693
F      6.825  -6.824 -14.491
F      6.825  -6.824  -6.399
F      6.825  -6.824   1.693
F      6.825   6.825 -14.491
F      6.825   6.825  -6.399
F      6.825   6.825   1.693
H    -13.649  -2.217 -10.024
H    -13.649  -2.217  -1.932
H    -13.649  -2.217   6.161
H    -13.649  11.432 -10.024
H    -13.649  11.432  -1.932
H    -13.649  11.432   6.161
H      0.000  -2.217 -10.024
H      0.000  -2.217  -1.932
H      0.000  -2.217   6.161
H      0.000  11.432 -10.024
H      0.000  11.432  -1.932
H      0.000  11.432   6.161
H     -6.824  -9.041 -14.070
H     -6.824  -9.041  -5.978
H     -6.824  -9.041   2.114
H     -6.824   4.608 -14.070
H     -6.824   4.608  -5.978
H     -6.824   4.608   2.114
H      6.825  -9.041 -14.070
H      6.825  -9.041  -5.978
H      6.825  -9.041   2.114
H      6.825   4.608 -14.070
H      6.825   4.608  -5.978
H      6.825   4.608   2.114
H     -2.217 -13.649 -10.024
H     -2.217 -13.649  -1.932
H     -2.217 -13.649   6.161
H     -2.217   0.000 -10.024
H     -2.217   0.000  -1.932
H     -2.217   0.000   6.161
H     11.432 -13.649 -10.024
H     11.432 -13.649  -1.932
H     11.432 -13.649   6.161
H     11.432   0.000 -10.024
H     11.432   0.000  -1.932
H     11.432   0.000   6.161
H     -9.041  -6.824 -14.070
H     -9.041  -6.824  -5.978
H     -9.041  -6.824   2.114
H     -9.041   6.825 -14.070
H     -9.041   6.825  -5.978
H     -9.041   6.825   2.114
H      4.608  -6.824 -14.070
H      4.608  -6.824  -5.978
H      4.608  -6.824   2.114
H      4.608   6.825 -14.070
H      4.608   6.825  -5.978
H      4.608   6.825   2.114
H    -11.432 -13.649 -10.024
H    -11.432 -13.649  -1.932
H    -11.432 -13.649   6.161
H    -11.432   0.000 -10.024
H    -11.432   0.000  -1.932
H    -11.432   0.000   6.161
H      2.217 -13.649 -10.024
H      2.217 -13.649  -1.932
H      2.217 -13.649   6.161
H      2.217   0.000 -10.024
H      2.217   0.000  -1.932
H      2.217   0.000   6.161
H     -4.608  -6.824 -14.070
H     -4.608  -6.824  -5.978
H     -4.608  -6.824   2.114
H     -4.608   6.825 -14.070
H     -4.608   6.825  -5.978
H     -4.608   6.825   2.114
H      9.041  -6.824 -14.070
H    -13.649 -11.432 -10.024
H      9.041  -6.824  -5.978
H      9.041  -6.824   2.114
H      9.041   6.825 -14.070
H      9.041   6.825  -5.978
H      9.041   6.825   2.114
H    -13.649 -11.432  -1.932
H    -13.649 -11.432   6.161
H    -13.649   2.217 -10.024
H    -13.649   2.217  -1.932
H    -13.649 -11.432  -6.160
H    -13.649 -11.432   1.932
H    -13.649 -11.432  10.024
H    -13.649   2.217  -6.160
H    -13.649   2.217   1.932
H    -13.649   2.217  10.024
H      0.000 -11.432  -6.160
H      0.000 -11.432   1.932
H      0.000 -11.432  10.024
H    -13.649   2.217   6.161
H      0.000   2.217  -6.160
H      0.000   2.217   1.932
H      0.000   2.217  10.024
H      0.000 -11.432 -10.024
H      0.000 -11.432  -1.932
H      0.000 -11.432   6.161
H     -6.824  -4.608 -10.206
H      0.000   2.217 -10.024
H     -6.824  -4.608  -2.114
H     -6.824  -4.608   5.978
H     -6.824   9.041 -10.206
H     -6.824   9.041  -2.114
H     -6.824   9.041   5.978
H      6.825  -4.608 -10.206
H      6.825  -4.608  -2.114
H      6.825  -4.608   5.978
H      6.825   9.041 -10.206
H      6.825   9.041  -2.114
H      0.000   2.217  -1.932
H      6.825   9.041   5.978
H      0.000   2.217   6.161
H    -13.649  -2.217  -6.160
H    -13.649  -2.217   1.932
H    -13.649  -2.217  10.024
H    -13.649  11.432  -6.160
H    -13.649  11.432   1.932
H    -13.649  11.432  10.024
H      0.000  -2.217  -6.160
H      0.000  -2.217   1.932
H      0.000  -2.217  10.024
H      0.000  11.432  -6.160
H      0.000  11.432   1.932
H      0.000  11.432  10.024
H     -6.824  -9.041 -10.206
H     -6.824  -9.041  -2.114
H     -6.824  -9.041   5.978
H     -6.824   4.608 -10.206
H     -6.824   4.608  -2.114
H     -6.824   4.608   5.978
H      6.825  -9.041 -10.206
H      6.825  -9.041  -2.114
H      6.825  -9.041   5.978
H      6.825   4.608 -10.206
H      6.825   4.608  -2.114
H      6.825   4.608   5.978
H    -11.432 -13.649  -6.160
H    -11.432 -13.649   1.932
H    -11.432 -13.649  10.024
H    -11.432   0.000  -6.160
H    -11.432   0.000   1.932
H    -11.432   0.000  10.024
H      2.217 -13.649  -6.160
H      2.217 -13.649   1.932
H      2.217 -13.649  10.024
H      2.217   0.000  -6.160
H      2.217   0.000   1.932
H      2.217   0.000  10.024
H     -4.608  -6.824 -10.206
H     -4.608  -6.824  -2.114
H     -4.608  -6.824   5.978
H     -4.608   6.825 -10.206
H     -4.608   6.825  -2.114
H     -4.608   6.825   5.978
H      9.041  -6.824 -10.206
H      9.041  -6.824  -2.114
H      9.041  -6.824   5.978
H      9.041   6.825 -10.206
H      9.041   6.825  -2.114
H      9.041   6.825   5.978
H     -2.217 -13.649  -6.160
H     -2.217 -13.649   1.932
H     -2.217 -13.649  10.024
H     -2.217   0.000  -6.160
H     -2.217   0.000   1.932
H     -2.217   0.000  10.024
H     11.432 -13.649  -6.160
H     11.432 -13.649   1.932
H     11.432 -13.649  10.024
H     11.432   0.000  -6.160
H     11.432   0.000   1.932
H     11.432   0.000  10.024
H     -9.041  -6.824 -10.206
H     -9.041  -6.824  -2.114
H     -9.041  -6.824   5.978
H     -9.041   6.825 -10.206
H     -9.041   6.825  -2.114
H     -9.041   6.825   5.978
H      4.608  -6.824 -10.206
H      4.608  -6.824  -2.114
H      4.608  -6.824   5.978
H      4.608   6.825 -10.206
H      4.608   6.825  -2.114
H      4.608   6.825   5.978
H     -6.824  -4.608 -14.070
H     -6.824  -4.608  -5.978
H     -6.824  -4.608   2.114
H     -6.824   9.041 -14.070
H     -6.824   9.041  -5.978
H     -6.824   9.041   2.114
H      6.825  -4.608 -14.070
H      6.825  -4.608  -5.978
H      6.825  -4.608   2.114
H      6.825   9.041 -14.070
H      6.825   9.041  -5.978
H      6.825   9.041   2.114
N     -6.824  -8.839 -12.138
N     -6.824  -8.839  -4.046
N     -6.824  -8.839   4.046
N     -6.824   4.810 -12.138
N     -6.824   4.810  -4.046
N     -6.824   4.810   4.046
N      6.825  -8.839 -12.138
N      6.825  -8.839  -4.046
N      6.825  -8.839   4.046
N      6.825   4.810 -12.138
N      6.825   4.810  -4.046
N      6.825   4.810   4.046
N     -2.015 -13.649  -8.092
N     -2.015 -13.649   0.000
N     -2.015 -13.649   8.092
N     -2.015   0.000  -8.092
N     -2.015   0.000   0.000
N     -2.015   0.000   8.092
N     11.634 -13.649  -8.092
N     11.634 -13.649   0.000
N     11.634 -13.649   8.092
N     11.634   0.000  -8.092
N     11.634   0.000   0.000
N     11.634   0.000   8.092
N     -8.839  -6.824 -12.138
N     -8.839  -6.824  -4.046
N     -8.839  -6.824   4.046
N     -8.839   6.825 -12.138
N     -8.839   6.825  -4.046
N     -8.839   6.825   4.046
N      4.810  -6.824 -12.138
N      4.810  -6.824  -4.046
N      4.810  -6.824   4.046
N      4.810   6.825 -12.138
N      4.810   6.825  -4.046
N      4.810   6.825   4.046
N    -11.634 -13.649  -8.092
N    -11.634 -13.649   0.000
N    -11.634 -13.649   8.092
N    -11.634   0.000  -8.092
N    -11.634   0.000   0.000
N    -11.634   0.000   8.092
N      2.015 -13.649  -8.092
N      2.015 -13.649   0.000
N      2.015 -13.649   8.092
N      2.015   0.000  -8.092
N      2.015   0.000   0.000
N      2.015   0.000   8.092
N     -4.810  -6.824 -12.138
N     -4.810  -6.824  -4.046
N     -4.810  -6.824   4.046
N     -4.810   6.825 -12.138
N     -4.810   6.825  -4.046
N     -4.810   6.825   4.046
N      8.839  -6.824 -12.138
N      8.839  -6.824  -4.046
N      8.839  -6.824   4.046
N      8.839   6.825 -12.138
N      8.839   6.825  -4.046
N      8.839   6.825   4.046
N    -13.649 -11.634  -8.092
N    -13.649 -11.634   0.000
N    -13.649 -11.634   8.092
N    -13.649   2.015  -8.092
N    -13.649   2.015   0.000
N    -13.649   2.015   8.092
N      0.000 -11.634  -8.092
N      0.000 -11.634   0.000
N      0.000 -11.634   8.092
N      0.000   2.015  -8.092
N      0.000   2.015   0.000
N      0.000   2.015   8.092
N     -6.824  -4.810 -12.138
N     -6.824  -4.810  -4.046
N     -6.824  -4.810   4.046
N     -6.824   8.839 -12.138
N     -6.824   8.839  -4.046
N     -6.824   8.839   4.046
N      6.825  -4.810 -12.138
N      6.825  -4.810  -4.046
N      6.825  -4.810   4.046
N      6.825   8.839 -12.138
N      6.825   8.839  -4.046
N      6.825   8.839   4.046
N    -13.649  -2.015  -8.092
N    -13.649  -2.015   0.000
N    -13.649  -2.015   8.092
N    -13.649  11.634  -8.092
N    -13.649  11.634   0.000
N    -13.649  11.634   8.092
N      0.000  -2.015  -8.092
N      0.000  -2.015   0.000
N      0.000  -2.015   8.092
N      0.000  11.634  -8.092
N      0.000  11.634   0.000
N      0.000  11.634   8.092
Si   -13.649 -13.649 -12.138
Si   -13.649 -13.649  -4.046
Si   -13.649 -13.649   4.046
Si   -13.649   0.000 -12.138
Si   -13.649   0.000  -4.046
Si   -13.649   0.000   4.046
Si     0.000 -13.649 -12.138
Si     0.000 -13.649  -4.046
Si     0.000 -13.649   4.046
Si     0.000   0.000 -12.138
Si     0.000   0.000  -4.046
Si     0.000   0.000   4.046
Si    -6.824  -6.824  -8.092
Si    -6.824  -6.824   0.000
Si    -6.824  -6.824   8.092
Si    -6.824   6.825  -8.092
Si    -6.824   6.825   0.000
Si    -6.824   6.825   8.092
Si     6.825  -6.824  -8.092
Si     6.825  -6.824   0.000
Si     6.825  -6.824   8.092
Si     6.825   6.825  -8.092
Si     6.825   6.825   0.000
Si     6.825   6.825   8.092
